test_data/pfdelta/case14/n/raw/sample_2.json
{"network":{"bus":{"4":{"zone":1,"bus_i":4,"bus_type":1,"vmax":1.06,"source_id":["bus",4],"area":1,"vmin":0.94,"index":4,"va":0.0,"vm":1.0,"base_kv":1.0},"1":{"zone":1,"bus_i":1,"bus_type":3,"vmax":1.06,"source_id":["bus",1],"area":1,"vmin":0.94,"index":1,"va":0.0,"vm":1.0,"base_kv":1.0},"12":{"zone":1,"bus_i":12,"bus_type":1,"vmax":1.06,"source_id":["bus",12],"area":1,"vmin":0.94,"index":12,"va":0.0,"vm":1.0,"base_kv":1.0},"2":{"zone":1,"bus_i":2,"bus_type":2,"vmax":1.06,"source_id":["bus",2],"area":1,"vmin":0.94,"index":2,"va":0.0,"vm":1.0,"base_kv":1.0},"6":{"zone":1,"bus_i":6,"bus_type":2,"vmax":1.06,"source_id":["bus",6],"area":1,"vmin":0.94,"index":6,"va":0.0,"vm":1.0,"base_kv":1.0},"11":{"zone":1,"bus_i":11,"bus_type":1,"vmax":1.06,"source_id":["bus",11],"area":1,"vmin":0.94,"index":11,"va":0.0,"vm":1.0,"base_kv":1.0},"13":{"zone":1,"bus_i":13,"bus_type":1,"vmax":1.06,"source_id":["bus",13],"area":1,"vmin":0.94,"index":13,"va":0.0,"vm":1.0,"base_kv":1.0},"5":{"zone":1,"bus_i":5,"bus_type":1,"vmax":1.06,"source_id":["bus",5],"area":1,"vmin":0.94,"index":5,"va":0.0,"vm":1.0,"base_kv":1.0},"14":{"zone":1,"bus_i":14,"bus_type":1,"vmax":1.06,"source_id":["bus",14],"area":1,"vmin":0.94,"index":14,"va":0.0,"vm":1.0,"base_kv":1.0},"7":{"zone":1,"bus_i":7,"bus_type":1,"vmax":1.06,"source_id":["bus",7],"area":1,"vmin":0.94,"index":7,"va":0.0,"vm":1.0,"base_kv":1.0},"8":{"zone":1,"bus_i":8,"bus_type":2,"vmax":1.06,"source_id":["bus",8],"area":1,"vmin":0.94,"index":8,"va":0.0,"vm":1.0,"base_kv":1.0},"10":{"zone":1,"bus_i":10,"bus_type":1,"vmax":1.06,"source_id":["bus",10],"area":1,"vmin":0.94,"index":10,"va":0.0,"vm":1.0,"base_kv":1.0},"9":{"zone":1,"bus_i":9,"bus_type":1,"vmax":1.06,"source_id":["bus",9],"area":1,"vmin":0.94,"index":9,"va":0.0,"vm":1.0,"base_kv":1.0},"3":{"zone":1,"bus_i":3,"bus_type":2,"vmax":1.06,"source_id":["bus",3],"area":1,"vmin":0.94,"index":3,"va":0.0,"vm":1.0,"base_kv":1.0}},"source_type":"matpower","name":"pglib_opf_case14_ieee","dcline":{},"source_version":"2","gen":{"4":{"pg":0.0,"model":2,"shutdown":0.0,"startup":0.0,"qg":0.09,"gen_bus":6,"pmax":0.0,"vg":1.0,"mbase":100.0,"source_id":["gen",4],"index":4,"cost":[],"qmax":0.24,"gen_status":1,"qmin":-0.06,"pmin":0.0,"ncost":0},"1":{"pg":1.7,"model":2,"shutdown":0.0,"startup":0.0,"qg":0.05,"gen_bus":1,"pmax":3.4,"vg":1.0,"mbase":100.0,"source_id":["gen",1],"index":1,"cost":[792.0951,0.0],"qmax":0.1,"gen_status":1,"qmin":0.0,"pmin":0.0,"ncost":2},"5":{"pg":0.0,"model":2,"shutdown":0.0,"startup":0.0,"qg":0.09,"gen_bus":8,"pmax":0.0,"vg":1.0,"mbase":100.0,"source_id":["gen",5],"index":5,"cost":[],"qmax":0.24,"gen_status":1,"qmin":-0.06,"pmin":0.0,"ncost":0},"2":{"pg":0.295,"model":2,"shutdown":0.0,"startup":0.0,"qg":0.0,"gen_bus":2,"pmax":0.59,"vg":1.0,"mbase":100.0,"source_id":["gen",2],"index":2,"cost":[],"qmax":0.3,"gen_status":1,"qmin":-0.3,"pmin":0.0,"ncost":2},"3":{"pg":0.0,"model":2,"shutdown":0.0,"startup":0.0,"qg":0.2,"gen_bus":3,"pmax":0.0,"vg":1.0,"mbase":100.0,"source_id":["gen",3],"index":3,"cost":[2326.9494,0.0],"qmax":0.4,"gen_status":1,"qmin":0.0,"pmin":0.0,"ncost":0}},"branch":{"4":{"br_r":0.05811,"rate_a":1.58,"shift":0.0,"rate_b":1.58,"br_x":0.17632,"rate_c":1.58,"g_to":0.0,"g_fr":0.0,"source_id":["branch",4],"b_fr":0.017,"f_bus":2,"br_status":1,"t_bus":4,"b_to":0.017,"index":4,"angmin":-0.5235987755982988,"angmax":0.5235987755982988,"transformer":false,"tap":1.0},"1":{"br_r":0.01938,"rate_a":4.72,"shift":0.0,"rate_b":4.72,"br_x":0.05917,"rate_c":4.72,"g_to":0.0,"g_fr":0.0,"source_id":["branch",1],"b_fr":0.0264,"f_bus":1,"br_status":1,"t_bus":2,"b_to":0.0264,"index":1,"angmin":-0.5235987755982988,"angmax":0.5235987755982988,"transformer":false,"tap":1.0},"12":{"br_r":0.12291,"rate_a":1.04,"shift":0.0,"rate_b":1.04,"br_x":0.25581,"rate_c":1.04,"g_to":0.0,"g_fr":0.0,"source_id":["branch",12],"b_fr":0.0,"f_bus":6,"br_status":1,"t_bus":12,"b_to":0.0,"index":12,"angmin":-0.5235987755982988,"angmax":0.5235987755982988,"transformer":false,"tap":1.0},"20":{"br_r":0.17093,"rate_a":0.76,"shift":0.0,"rate_b":0.76,"br_x":0.34802,"rate_c":0.76,"g_to":0.0,"g_fr":0.0,"source_id":["branch",20],"b_fr":0.0,"f_bus":13,"br_status":1,"t_bus":14,"b_to":0.0,"index":20,"angmin":-0.5235987755982988,"angmax":0.5235987755982988,"transformer":false,"tap":1.0},"2":{"br_r":0.05403,"rate_a":1.28,"shift":0.0,"rate_b":1.28,"br_x":0.22304,"rate_c":1.28,"g_to":0.0,"g_fr":0.0,"source_id":["branch",2],"b_fr":0.0246,"f_bus":1,"br_status":1,"t_bus":5,"b_to":0.0246,"index":2,"angmin":-0.5235987755982988,"angmax":0.5235987755982988,"transformer":false,"tap":1.0},"6":{"br_r":0.06701,"rate_a":1.6,"shift":0.0,"rate_b":1.6,"br_x":0.17103,"rate_c":1.6,"g_to":0.0,"g_fr":0.0,"source_id":["branch",6],"b_fr":0.0064,"f_bus":3,"br_status":1,"t_bus":4,"b_to":0.0064,"index":6,"angmin":-0.5235987755982988,"angmax":0.5235987755982988,"transformer":false,"tap":1.0},"11":{"br_r":0.09498,"rate_a":1.34,"shift":0.0,"rate_b":1.34,"br_x":0.1989,"rate_c":1.34,"g_to":0.0,"g_fr":0.0,"source_id":["branch",11],"b_fr":0.0,"f_bus":6,"br_status":1,"t_bus":11,"b_to":0.0,"index":11,"angmin":-0.5235987755982988,"angmax":0.5235987755982988,"transformer":false,"tap":1.0},"13":{"br_r":0.06615,"rate_a":2.01,"shift":0.0,"rate_b":2.01,"br_x":0.13027,"rate_c":2.01,"g_to":0.0,"g_fr":0.0,"source_id":["branch",13],"b_fr":0.0,"f_bus":6,"br_status":1,"t_bus":13,"b_to":0.0,"index":13,"angmin":-0.5235987755982988,"angmax":0.5235987755982988,"transformer":false,"tap":1.0},"5":{"br_r":0.05695,"rate_a":1.61,"shift":0.0,"rate_b":1.61,"br_x":0.17388,"rate_c":1.61,"g_to":0.0,"g_fr":0.0,"source_id":["branch",5],"b_fr":0.0173,"f_bus":2,"br_status":1,"t_bus":5,"b_to":0.0173,"index":5,"angmin":-0.5235987755982988,"angmax":0.5235987755982988,"transformer":false,"tap":1.0},"15":{"br_r":0.0,"rate_a":2.67,"shift":0.0,"rate_b":2.67,"br_x":0.11001,"rate_c":2.67,"g_to":0.0,"g_fr":0.0,"source_id":["branch",15],"b_fr":0.0,"f_bus":7,"br_status":1,"t_bus":9,"b_to":0.0,"index":15,"angmin":-0.5235987755982988,"angmax":0.5235987755982988,"transformer":false,"tap":1.0},"16":{"br_r":0.03181,"rate_a":3.25,"shift":0.0,"rate_b":3.25,"br_x":0.0845,"rate_c":3.25,"g_to":0.0,"g_fr":0.0,"source_id":["branch",16],"b_fr":0.0,"f_bus":9,"br_status":1,"t_bus":10,"b_to":0.0,"index":16,"angmin":-0.5235987755982988,"angmax":0.5235987755982988,"transformer":false,"tap":1.0},"14":{"br_r":0.0,"rate_a":1.67,"shift":0.0,"rate_b":1.67,"br_x":0.17615,"rate_c":1.67,"g_to":0.0,"g_fr":0.0,"source_id":["branch",14],"b_fr":0.0,"f_bus":7,"br_status":1,"t_bus":8,"b_to":0.0,"index":14,"angmin":-0.5235987755982988,"angmax":0.5235987755982988,"transformer":false,"tap":1.0},"7":{"br_r":0.01335,"rate_a":6.64,"shift":0.0,"rate_b":6.64,"br_x":0.04211,"rate_c":6.64,"g_to":0.0,"g_fr":0.0,"source_id":["branch",7],"b_fr":0.0,"f_bus":4,"br_status":1,"t_bus":5,"b_to":0.0,"index":7,"angmin":-0.5235987755982988,"angmax":0.5235987755982988,"transformer":false,"tap":1.0},"8":{"br_r":0.0,"rate_a":1.41,"shift":0.0,"rate_b":1.41,"br_x":0.20912,"rate_c":1.41,"g_to":0.0,"g_fr":0.0,"source_id":["branch",8],"b_fr":0.0,"f_bus":4,"br_status":1,"t_bus":7,"b_to":0.0,"index":8,"angmin":-0.5235987755982988,"angmax":0.5235987755982988,"transformer":true,"tap":0.978},"17":{"br_r":0.12711,"rate_a":0.99,"shift":0.0,"rate_b":0.99,"br_x":0.27038,"rate_c":0.99,"g_to":0.0,"g_fr":0.0,"source_id":["branch",17],"b_fr":0.0,"f_bus":9,"br_status":1,"t_bus":14,"b_to":0.0,"index":17,"angmin":-0.5235987755982988,"angmax":0.5235987755982988,"transformer":false,"tap":1.0},"10":{"br_r":0.0,"rate_a":1.17,"shift":0.0,"rate_b":1.17,"br_x":0.25202,"rate_c":1.17,"g_to":0.0,"g_fr":0.0,"source_id":["branch",10],"b_fr":0.0,"f_bus":5,"br_status":1,"t_bus":6,"b_to":0.0,"index":10,"angmin":-0.5235987755982988,"angmax":0.5235987755982988,"transformer":true,"tap":0.932},"19":{"br_r":0.22092,"rate_a":0.99,"shift":0.0,"rate_b":0.99,"br_x":0.19988,"rate_c":0.99,"g_to":0.0,"g_fr":0.0,"source_id":["branch",19],"b_fr":0.0,"f_bus":12,"br_status":1,"t_bus":13,"b_to":0.0,"index":19,"angmin":-0.5235987755982988,"angmax":0.5235987755982988,"transformer":false,"tap":1.0},"9":{"br_r":0.0,"rate_a":0.53,"shift":0.0,"rate_b":0.53,"br_x":0.55618,"rate_c":0.53,"g_to":0.0,"g_fr":0.0,"source_id":["branch",9],"b_fr":0.0,"f_bus":4,"br_status":1,"t_bus":9,"b_to":0.0,"index":9,"angmin":-0.5235987755982988,"angmax":0.5235987755982988,"transformer":true,"tap":0.969},"18":{"br_r":0.08205,"rate_a":1.41,"shift":0.0,"rate_b":1.41,"br_x":0.19207,"rate_c":1.41,"g_to":0.0,"g_fr":0.0,"source_id":["branch",18],"b_fr":0.0,"f_bus":10,"br_status":1,"t_bus":11,"b_to":0.0,"index":18,"angmin":-0.5235987755982988,"angmax":0.5235987755982988,"transformer":false,"tap":1.0},"3":{"br_r":0.04699,"rate_a":1.45,"shift":0.0,"rate_b":1.45,"br_x":0.19797,"rate_c":1.45,"g_to":0.0,"g_fr":0.0,"source_id":["branch",3],"b_fr":0.0219,"f_bus":2,"br_status":1,"t_bus":3,"b_to":0.0219,"index":3,"angmin":-0.5235987755982988,"angmax":0.5235987755982988,"transformer":false,"tap":1.0}},"storage":{},"switch":{},"baseMVA":100.0,"per_unit":true,"shunt":{"1":{"source_id":["bus",9],"shunt_bus":9,"status":1,"gs":0.0,"bs":0.19,"index":1}},"load":{"4":{"source_id":["bus",5],"load_bus":5,"status":1,"qd":0.19707640639938745,"pd":0.4044813639608844,"index":4},"1":{"source_id":["bus",2],"load_bus":2,"status":1,"qd":0.19211966515952902,"pd":0.3165104686002805,"index":1},"2":{"source_id":["bus",3],"load_bus":3,"status":1,"qd":0.08716883810569918,"pd":0.1722117150106974,"index":2},"6":{"source_id":["bus",9],"load_bus":9,"status":1,"qd":0.042280999064493924,"pd":0.10047836875000607,"index":6},"11":{"source_id":["bus",14],"load_bus":14,"status":1,"qd":0.27368386292255314,"pd":0.28166956074253763,"index":11},"5":{"source_id":["bus",6],"load_bus":6,"status":1,"qd":0.08300613928444467,"pd":0.20017438353813952,"index":5},"7":{"source_id":["bus",10],"load_bus":10,"status":1,"qd":0.14574929730844446,"pd":0.17742474633114108,"index":7},"8":{"source_id":["bus",11],"load_bus":11,"status":1,"qd":0.2332313586610154,"pd":0.4870090622989617,"index":8},"10":{"source_id":["bus",13],"load_bus":13,"status":1,"qd":0.29325139520412996,"pd":0.514668625319312,"index":10},"9":{"source_id":["bus",12],"load_bus":12,"status":1,"qd":0.2781509318296371,"pd":0.2910698866404593,"index":9},"3":{"source_id":["bus",4],"load_bus":4,"status":1,"qd":0.09085964542493745,"pd":0.20084652382892051,"index":3}}},"solution":{"solve_time":0.011823177337646484,"optimizer":"Ipopt","termination_status":"LOCALLY_SOLVED","dual_status":"FEASIBLE_POINT","primal_status":"FEASIBLE_POINT","objective":2266.2505173210307,"solution":{"baseMVA":100.0,"branch":{"4":{"qf":0.16048703665148178,"qt":-0.09275679843312264,"pt":-0.7450563733354882,"pf":0.7789147051903706},"1":{"qf":-0.2916315010912759,"qt":0.40659203679459205,"pt":-1.7396195510974588,"pf":1.7964680981474588},"12":{"qf":0.30413704913184214,"qt":-0.26448127060871446,"pt":-0.2667464076902394,"pf":0.2857999698585578},"20":{"qf":0.1564844102118035,"qt":-0.14659933463479277,"pt":0.04762374702486228,"pf":-0.04276869280849981},"2":{"qf":0.22329998310833704,"qt":-0.036890091194901976,"pt":-1.0070861414430148,"pf":1.0646157758987644},"6":{"qf":0.18068952896598886,"qt":-0.17434519844310914,"pt":-0.28349837927073235,"pf":0.2910613513979741},"11":{"qf":0.36085223410729145,"qt":-0.3291654240384974,"pt":-0.20574576303081965,"pf":0.22087705121751688},"13":{"qf":0.5284401111230412,"qt":-0.4635764180747772,"pt":-0.49641235778715487,"pf":0.529349590420475},"5":{"qf":0.1998383281629789,"qt":-0.13576351695091732,"pt":-0.728740820599788,"pf":0.761337116092727},"15":{"qf":0.15627297071059323,"qt":-0.11682937957104175,"pt":-0.5879552267284147,"pf":0.5879552267284147},"16":{"qf":0.08731174252627656,"qt":-0.06774876456815132,"pt":-0.4663490356179296,"pf":0.47371351288240315},"14":{"qf":-0.2537698009845582,"qt":0.2647591749051568,"pt":0.0,"pf":-5.487977000181774e-38},"7":{"qf":0.14994734242473928,"qt":-0.1485715451164984,"pt":0.09514460304722896,"pf":-0.09470843838170964},"8":{"qf":-0.025539463777062895,"qt":0.09749683027396498,"pt":-0.5879552267284147,"pf":0.5879552267284147},"17":{"qf":0.16735431789151073,"qt":-0.12708452828776035,"pt":-0.3292933077673999,"pf":0.3482247855266005},"19":{"qf":-0.01366966122092268,"qt":0.013840612658843714,"pt":0.024512425276342686,"pf":-0.024323478950219954},"10":{"qf":0.12414874686293025,"qt":0.23054141676175247,"pt":-1.2362009950346893,"pf":1.2362009950346893},"9":{"qf":0.051834472803617956,"qt":0.010303577092492983,"pt":-0.3344614404305949,"pf":0.3344614404305949},"18":{"qf":-0.07800053274029314,"qt":0.09593406537748199,"pt":-0.28126329926814203,"pf":0.28892428928678854},"3":{"qf":-0.02834438243458224,"qt":0.021453793430877558,"pt":-0.46327306640867155,"pf":0.47285727035821684}},"gen":{"4":{"qg":1.506976950408372,"pg":0.0},"1":{"qg":-0.06833151798293884,"pg":2.861083874046223},"5":{"qg":0.2647591749051568,"pg":0.0},"2":{"qg":0.9306926843339995,"pg":0.59},"3":{"qg":0.2893121605025656,"pg":0.0}},"multiinfrastructure":false,"multinetwork":false,"bus":{"4":{"va":-0.2243809106344019,"vm":0.9811888426025437},"1":{"va":2.4687145451395038e-36,"vm":1.06},"12":{"va":-0.5379292910014952,"vm":0.9540588481285321},"2":{"va":-0.10051627022337946,"vm":1.0470634872752274},"6":{"va":-0.5025922414332137,"vm":1.06},"11":{"va":-0.5119616357483242,"vm":0.9725404188141461},"13":{"va":-0.5359236234512427,"vm":0.962556942314148},"5":{"va":-0.21812633591115613,"vm":0.9760611930593439},"14":{"va":-0.4886155077115192,"vm":0.914596874068774},"7":{"va":-0.34529867785081947,"vm":1.0160025254296408},"8":{"va":-0.34529867785081947,"vm":1.06},"10":{"va":-0.4469355959514299,"vm":0.9793932507464249},"9":{"va":-0.40893335751787563,"vm":1.0011079572777979},"3":{"va":-0.18756728173019285,"vm":1.0305644615279996}},"per_unit":true},"objective_lb":null}}